
---------- Begin Simulation Statistics ----------
final_tick                                 2694497000                       # Number of ticks from beginning of simulation (restored from checkpoints and never reset)
host_inst_rate                                 211941                       # Simulator instruction rate (inst/s)
host_mem_usage                                 710480                       # Number of bytes of host memory used
host_op_rate                                   211944                       # Simulator op (including micro ops) rate (op/s)
host_seconds                                    20.89                       # Real time elapsed on the host
host_tick_rate                              129004360                       # Simulator tick rate (ticks/s)
sim_freq                                 1000000000000                       # Frequency of simulated ticks
sim_insts                                     4426764                       # Number of instructions simulated
sim_ops                                       4426845                       # Number of ops (including micro ops) simulated
sim_seconds                                  0.002694                       # Number of seconds simulated
sim_ticks                                  2694497000                       # Number of ticks simulated
system.clk_domain.clock                          1000                       # Clock period in ticks
system.clk_domain.voltage_domain.voltage            1                       # Voltage in Volts
system.cpu0.branchPred.BTBCorrect                   0                       # Number of correct BTB predictions (this stat may not work properly.
system.cpu0.branchPred.BTBHitPct            33.573854                       # BTB Hit Percentage
system.cpu0.branchPred.BTBHits                    791                       # Number of BTB hits
system.cpu0.branchPred.BTBLookups                2356                       # Number of BTB lookups
system.cpu0.branchPred.RASInCorrect                 0                       # Number of incorrect RAS predictions.
system.cpu0.branchPred.condIncorrect             1599                       # Number of conditional branches incorrect
system.cpu0.branchPred.condPredicted             4354                       # Number of conditional branches predicted
system.cpu0.branchPred.indirectHits                18                       # Number of indirect target hits.
system.cpu0.branchPred.indirectLookups           1271                       # Number of indirect predictor lookups.
system.cpu0.branchPred.indirectMisses            1253                       # Number of indirect misses.
system.cpu0.branchPred.lookups                   6281                       # Number of BP lookups
system.cpu0.branchPred.usedRAS                      0                       # Number of times the RAS was used to get a target.
system.cpu0.branchPredindirectMispredicted          578                       # Number of mispredicted indirect branches.
system.cpu0.bt.discartedCfgs                      365                       # Number of discated configuration
system.cpu0.bt.endResource                          0                       # Number of configurations ended by lack of resource
system.cpu0.bt.endSpeculation                     167                       # Number of configurations ended due to reach the speculation limit
system.cpu0.bt.endUnknownInst                     186                       # Number of configurations ended due a unknown instruction
system.cpu0.bt.insts::samples                     285                       # Number of instructions mapped in this configuration
system.cpu0.bt.insts::mean                  21.722807                       # Number of instructions mapped in this configuration
system.cpu0.bt.insts::stdev                 12.893538                       # Number of instructions mapped in this configuration
system.cpu0.bt.insts::underflows                    0      0.00%      0.00% # Number of instructions mapped in this configuration
system.cpu0.bt.insts::0                             0      0.00%      0.00% # Number of instructions mapped in this configuration
system.cpu0.bt.insts::1                             0      0.00%      0.00% # Number of instructions mapped in this configuration
system.cpu0.bt.insts::2                             0      0.00%      0.00% # Number of instructions mapped in this configuration
system.cpu0.bt.insts::3                             0      0.00%      0.00% # Number of instructions mapped in this configuration
system.cpu0.bt.insts::4                            12      4.21%      4.21% # Number of instructions mapped in this configuration
system.cpu0.bt.insts::5                             7      2.46%      6.67% # Number of instructions mapped in this configuration
system.cpu0.bt.insts::6                             8      2.81%      9.47% # Number of instructions mapped in this configuration
system.cpu0.bt.insts::7                             7      2.46%     11.93% # Number of instructions mapped in this configuration
system.cpu0.bt.insts::8                             7      2.46%     14.39% # Number of instructions mapped in this configuration
system.cpu0.bt.insts::9                             5      1.75%     16.14% # Number of instructions mapped in this configuration
system.cpu0.bt.insts::10                           10      3.51%     19.65% # Number of instructions mapped in this configuration
system.cpu0.bt.insts::11                           14      4.91%     24.56% # Number of instructions mapped in this configuration
system.cpu0.bt.insts::12                            5      1.75%     26.32% # Number of instructions mapped in this configuration
system.cpu0.bt.insts::13                            6      2.11%     28.42% # Number of instructions mapped in this configuration
system.cpu0.bt.insts::14                            8      2.81%     31.23% # Number of instructions mapped in this configuration
system.cpu0.bt.insts::15                            8      2.81%     34.04% # Number of instructions mapped in this configuration
system.cpu0.bt.insts::16                           13      4.56%     38.60% # Number of instructions mapped in this configuration
system.cpu0.bt.insts::17                           15      5.26%     43.86% # Number of instructions mapped in this configuration
system.cpu0.bt.insts::18                            9      3.16%     47.02% # Number of instructions mapped in this configuration
system.cpu0.bt.insts::19                            7      2.46%     49.47% # Number of instructions mapped in this configuration
system.cpu0.bt.insts::20                            6      2.11%     51.58% # Number of instructions mapped in this configuration
system.cpu0.bt.insts::21                            5      1.75%     53.33% # Number of instructions mapped in this configuration
system.cpu0.bt.insts::22                            7      2.46%     55.79% # Number of instructions mapped in this configuration
system.cpu0.bt.insts::23                           11      3.86%     59.65% # Number of instructions mapped in this configuration
system.cpu0.bt.insts::24                            8      2.81%     62.46% # Number of instructions mapped in this configuration
system.cpu0.bt.insts::25                            8      2.81%     65.26% # Number of instructions mapped in this configuration
system.cpu0.bt.insts::26                           11      3.86%     69.12% # Number of instructions mapped in this configuration
system.cpu0.bt.insts::27                            6      2.11%     71.23% # Number of instructions mapped in this configuration
system.cpu0.bt.insts::28                           11      3.86%     75.09% # Number of instructions mapped in this configuration
system.cpu0.bt.insts::29                           11      3.86%     78.95% # Number of instructions mapped in this configuration
system.cpu0.bt.insts::30                            3      1.05%     80.00% # Number of instructions mapped in this configuration
system.cpu0.bt.insts::31                           12      4.21%     84.21% # Number of instructions mapped in this configuration
system.cpu0.bt.insts::32                            4      1.40%     85.61% # Number of instructions mapped in this configuration
system.cpu0.bt.insts::overflows                    41     14.39%    100.00% # Number of instructions mapped in this configuration
system.cpu0.bt.insts::min_value                     4                       # Number of instructions mapped in this configuration
system.cpu0.bt.insts::max_value                    86                       # Number of instructions mapped in this configuration
system.cpu0.bt.insts::total                       285                       # Number of instructions mapped in this configuration
system.cpu0.bt.ipc::samples                       285                       # IPC for generated configurations
system.cpu0.bt.ipc::mean                     2.509912                       # IPC for generated configurations
system.cpu0.bt.ipc::stdev                    0.818709                       # IPC for generated configurations
system.cpu0.bt.ipc::underflows                      0      0.00%      0.00% # IPC for generated configurations
system.cpu0.bt.ipc::0                               0      0.00%      0.00% # IPC for generated configurations
system.cpu0.bt.ipc::1                              80     28.07%     28.07% # IPC for generated configurations
system.cpu0.bt.ipc::2                             133     46.67%     74.74% # IPC for generated configurations
system.cpu0.bt.ipc::3                              47     16.49%     91.23% # IPC for generated configurations
system.cpu0.bt.ipc::4                              24      8.42%     99.65% # IPC for generated configurations
system.cpu0.bt.ipc::5                               1      0.35%    100.00% # IPC for generated configurations
system.cpu0.bt.ipc::6                               0      0.00%    100.00% # IPC for generated configurations
system.cpu0.bt.ipc::7                               0      0.00%    100.00% # IPC for generated configurations
system.cpu0.bt.ipc::8                               0      0.00%    100.00% # IPC for generated configurations
system.cpu0.bt.ipc::9                               0      0.00%    100.00% # IPC for generated configurations
system.cpu0.bt.ipc::10                              0      0.00%    100.00% # IPC for generated configurations
system.cpu0.bt.ipc::11                              0      0.00%    100.00% # IPC for generated configurations
system.cpu0.bt.ipc::12                              0      0.00%    100.00% # IPC for generated configurations
system.cpu0.bt.ipc::13                              0      0.00%    100.00% # IPC for generated configurations
system.cpu0.bt.ipc::14                              0      0.00%    100.00% # IPC for generated configurations
system.cpu0.bt.ipc::15                              0      0.00%    100.00% # IPC for generated configurations
system.cpu0.bt.ipc::16                              0      0.00%    100.00% # IPC for generated configurations
system.cpu0.bt.ipc::overflows                       0      0.00%    100.00% # IPC for generated configurations
system.cpu0.bt.ipc::min_value                       1                       # IPC for generated configurations
system.cpu0.bt.ipc::max_value                       5                       # IPC for generated configurations
system.cpu0.bt.ipc::total                         285                       # IPC for generated configurations
system.cpu0.commit.amos                            38                       # Number of atomic instructions committed
system.cpu0.commit.basicBlocks.number             913                       # Number of different basic blocks executed
system.cpu0.commit.basicBlocks.size::samples         3326                       # Size of the basic blocks
system.cpu0.commit.basicBlocks.size::mean     4.492784                       # Size of the basic blocks
system.cpu0.commit.basicBlocks.size::stdev     4.238361                       # Size of the basic blocks
system.cpu0.commit.basicBlocks.size::underflows            0      0.00%      0.00% # Size of the basic blocks
system.cpu0.commit.basicBlocks.size::0-4         2282     68.61%     68.61% # Size of the basic blocks
system.cpu0.commit.basicBlocks.size::5-9          721     21.68%     90.29% # Size of the basic blocks
system.cpu0.commit.basicBlocks.size::10-14          187      5.62%     95.91% # Size of the basic blocks
system.cpu0.commit.basicBlocks.size::15-19           90      2.71%     98.62% # Size of the basic blocks
system.cpu0.commit.basicBlocks.size::20-24           33      0.99%     99.61% # Size of the basic blocks
system.cpu0.commit.basicBlocks.size::25-29           10      0.30%     99.91% # Size of the basic blocks
system.cpu0.commit.basicBlocks.size::30-34            0      0.00%     99.91% # Size of the basic blocks
system.cpu0.commit.basicBlocks.size::35-39            1      0.03%     99.94% # Size of the basic blocks
system.cpu0.commit.basicBlocks.size::40-44            0      0.00%     99.94% # Size of the basic blocks
system.cpu0.commit.basicBlocks.size::45-49            1      0.03%     99.97% # Size of the basic blocks
system.cpu0.commit.basicBlocks.size::50             0      0.00%     99.97% # Size of the basic blocks
system.cpu0.commit.basicBlocks.size::overflows            1      0.03%    100.00% # Size of the basic blocks
system.cpu0.commit.basicBlocks.size::min_value            1                       # Size of the basic blocks
system.cpu0.commit.basicBlocks.size::max_value           63                       # Size of the basic blocks
system.cpu0.commit.basicBlocks.size::total         3326                       # Size of the basic blocks
system.cpu0.commit.basicBlocks.totalBasicBlocks         3326                       # Number of total basic blocks executed
system.cpu0.commit.basicBlocks.trace::samples         3326                       # Basic block distribution
system.cpu0.commit.basicBlocks.trace::66376            1                       # Basic block distribution
system.cpu0.commit.basicBlocks.trace::66388            1                       # Basic block distribution
system.cpu0.commit.basicBlocks.trace::66450            1                       # Basic block distribution
system.cpu0.commit.basicBlocks.trace::66452            1                       # Basic block distribution
system.cpu0.commit.basicBlocks.trace::66466            1                       # Basic block distribution
system.cpu0.commit.basicBlocks.trace::66468            1                       # Basic block distribution
system.cpu0.commit.basicBlocks.trace::66482            1                       # Basic block distribution
system.cpu0.commit.basicBlocks.trace::66488            1                       # Basic block distribution
system.cpu0.commit.basicBlocks.trace::66498            1                       # Basic block distribution
system.cpu0.commit.basicBlocks.trace::66508            1                       # Basic block distribution
system.cpu0.commit.basicBlocks.trace::66520            1                       # Basic block distribution
system.cpu0.commit.basicBlocks.trace::66532            2                       # Basic block distribution
system.cpu0.commit.basicBlocks.trace::66546            3                       # Basic block distribution
system.cpu0.commit.basicBlocks.trace::66552            1                       # Basic block distribution
system.cpu0.commit.basicBlocks.trace::66566            1                       # Basic block distribution
system.cpu0.commit.basicBlocks.trace::66612            1                       # Basic block distribution
system.cpu0.commit.basicBlocks.trace::66616            1                       # Basic block distribution
system.cpu0.commit.basicBlocks.trace::66656            2                       # Basic block distribution
system.cpu0.commit.basicBlocks.trace::66666            1                       # Basic block distribution
system.cpu0.commit.basicBlocks.trace::66704            1                       # Basic block distribution
system.cpu0.commit.basicBlocks.trace::66706            1                       # Basic block distribution
system.cpu0.commit.basicBlocks.trace::66754            1                       # Basic block distribution
system.cpu0.commit.basicBlocks.trace::66756            1                       # Basic block distribution
system.cpu0.commit.basicBlocks.trace::66768            1                       # Basic block distribution
system.cpu0.commit.basicBlocks.trace::66772            1                       # Basic block distribution
system.cpu0.commit.basicBlocks.trace::66782            1                       # Basic block distribution
system.cpu0.commit.basicBlocks.trace::66794            1                       # Basic block distribution
system.cpu0.commit.basicBlocks.trace::66808            1                       # Basic block distribution
system.cpu0.commit.basicBlocks.trace::66818            1                       # Basic block distribution
system.cpu0.commit.basicBlocks.trace::66838            1                       # Basic block distribution
system.cpu0.commit.basicBlocks.trace::67020            3                       # Basic block distribution
system.cpu0.commit.basicBlocks.trace::67046            6                       # Basic block distribution
system.cpu0.commit.basicBlocks.trace::67120            3                       # Basic block distribution
system.cpu0.commit.basicBlocks.trace::67144            3                       # Basic block distribution
system.cpu0.commit.basicBlocks.trace::67148            3                       # Basic block distribution
system.cpu0.commit.basicBlocks.trace::67154            3                       # Basic block distribution
system.cpu0.commit.basicBlocks.trace::67164            3                       # Basic block distribution
system.cpu0.commit.basicBlocks.trace::67196            3                       # Basic block distribution
system.cpu0.commit.basicBlocks.trace::67202            3                       # Basic block distribution
system.cpu0.commit.basicBlocks.trace::67210            3                       # Basic block distribution
system.cpu0.commit.basicBlocks.trace::67242            3                       # Basic block distribution
system.cpu0.commit.basicBlocks.trace::67282            3                       # Basic block distribution
system.cpu0.commit.basicBlocks.trace::68046            3                       # Basic block distribution
system.cpu0.commit.basicBlocks.trace::68072            3                       # Basic block distribution
system.cpu0.commit.basicBlocks.trace::68078            3                       # Basic block distribution
system.cpu0.commit.basicBlocks.trace::68082            3                       # Basic block distribution
system.cpu0.commit.basicBlocks.trace::68092            3                       # Basic block distribution
system.cpu0.commit.basicBlocks.trace::68098            3                       # Basic block distribution
system.cpu0.commit.basicBlocks.trace::68112            3                       # Basic block distribution
system.cpu0.commit.basicBlocks.trace::68134            3                       # Basic block distribution
system.cpu0.commit.basicBlocks.trace::68156            3                       # Basic block distribution
system.cpu0.commit.basicBlocks.trace::70400            3                       # Basic block distribution
system.cpu0.commit.basicBlocks.trace::70418            3                       # Basic block distribution
system.cpu0.commit.basicBlocks.trace::70432            3                       # Basic block distribution
system.cpu0.commit.basicBlocks.trace::71148            3                       # Basic block distribution
system.cpu0.commit.basicBlocks.trace::71198            3                       # Basic block distribution
system.cpu0.commit.basicBlocks.trace::71202            3                       # Basic block distribution
system.cpu0.commit.basicBlocks.trace::71220            3                       # Basic block distribution
system.cpu0.commit.basicBlocks.trace::71294            3                       # Basic block distribution
system.cpu0.commit.basicBlocks.trace::71340            3                       # Basic block distribution
system.cpu0.commit.basicBlocks.trace::71382            3                       # Basic block distribution
system.cpu0.commit.basicBlocks.trace::71396            3                       # Basic block distribution
system.cpu0.commit.basicBlocks.trace::71402            3                       # Basic block distribution
system.cpu0.commit.basicBlocks.trace::71408            3                       # Basic block distribution
system.cpu0.commit.basicBlocks.trace::71636            3                       # Basic block distribution
system.cpu0.commit.basicBlocks.trace::71644            3                       # Basic block distribution
system.cpu0.commit.basicBlocks.trace::71658            3                       # Basic block distribution
system.cpu0.commit.basicBlocks.trace::71746            3                       # Basic block distribution
system.cpu0.commit.basicBlocks.trace::71806            3                       # Basic block distribution
system.cpu0.commit.basicBlocks.trace::71816            3                       # Basic block distribution
system.cpu0.commit.basicBlocks.trace::71850            3                       # Basic block distribution
system.cpu0.commit.basicBlocks.trace::71866            3                       # Basic block distribution
system.cpu0.commit.basicBlocks.trace::71872            3                       # Basic block distribution
system.cpu0.commit.basicBlocks.trace::71880            3                       # Basic block distribution
system.cpu0.commit.basicBlocks.trace::71892            3                       # Basic block distribution
system.cpu0.commit.basicBlocks.trace::71928            3                       # Basic block distribution
system.cpu0.commit.basicBlocks.trace::72176            3                       # Basic block distribution
system.cpu0.commit.basicBlocks.trace::72190            3                       # Basic block distribution
system.cpu0.commit.basicBlocks.trace::72196            3                       # Basic block distribution
system.cpu0.commit.basicBlocks.trace::72202            3                       # Basic block distribution
system.cpu0.commit.basicBlocks.trace::72294            3                       # Basic block distribution
system.cpu0.commit.basicBlocks.trace::72382            3                       # Basic block distribution
system.cpu0.commit.basicBlocks.trace::72404            3                       # Basic block distribution
system.cpu0.commit.basicBlocks.trace::72412            3                       # Basic block distribution
system.cpu0.commit.basicBlocks.trace::72436            3                       # Basic block distribution
system.cpu0.commit.basicBlocks.trace::72452            3                       # Basic block distribution
system.cpu0.commit.basicBlocks.trace::72456            3                       # Basic block distribution
system.cpu0.commit.basicBlocks.trace::72484            3                       # Basic block distribution
system.cpu0.commit.basicBlocks.trace::72502            3                       # Basic block distribution
system.cpu0.commit.basicBlocks.trace::72510            3                       # Basic block distribution
system.cpu0.commit.basicBlocks.trace::72578            3                       # Basic block distribution
system.cpu0.commit.basicBlocks.trace::72590            3                       # Basic block distribution
system.cpu0.commit.basicBlocks.trace::72602            3                       # Basic block distribution
system.cpu0.commit.basicBlocks.trace::72608            3                       # Basic block distribution
system.cpu0.commit.basicBlocks.trace::72616            3                       # Basic block distribution
system.cpu0.commit.basicBlocks.trace::72634            3                       # Basic block distribution
system.cpu0.commit.basicBlocks.trace::72660            3                       # Basic block distribution
system.cpu0.commit.basicBlocks.trace::72710            3                       # Basic block distribution
system.cpu0.commit.basicBlocks.trace::72810            1                       # Basic block distribution
system.cpu0.commit.basicBlocks.trace::72818            1                       # Basic block distribution
system.cpu0.commit.basicBlocks.trace::73866            3                       # Basic block distribution
system.cpu0.commit.basicBlocks.trace::73874            3                       # Basic block distribution
system.cpu0.commit.basicBlocks.trace::73882            3                       # Basic block distribution
system.cpu0.commit.basicBlocks.trace::73922            3                       # Basic block distribution
system.cpu0.commit.basicBlocks.trace::73926            3                       # Basic block distribution
system.cpu0.commit.basicBlocks.trace::73936            3                       # Basic block distribution
system.cpu0.commit.basicBlocks.trace::73944            3                       # Basic block distribution
system.cpu0.commit.basicBlocks.trace::73952            3                       # Basic block distribution
system.cpu0.commit.basicBlocks.trace::73958            3                       # Basic block distribution
system.cpu0.commit.basicBlocks.trace::73960            3                       # Basic block distribution
system.cpu0.commit.basicBlocks.trace::73970            3                       # Basic block distribution
system.cpu0.commit.basicBlocks.trace::73990            3                       # Basic block distribution
system.cpu0.commit.basicBlocks.trace::73996            3                       # Basic block distribution
system.cpu0.commit.basicBlocks.trace::74004            3                       # Basic block distribution
system.cpu0.commit.basicBlocks.trace::74018            3                       # Basic block distribution
system.cpu0.commit.basicBlocks.trace::74024            3                       # Basic block distribution
system.cpu0.commit.basicBlocks.trace::75330            2                       # Basic block distribution
system.cpu0.commit.basicBlocks.trace::75342            2                       # Basic block distribution
system.cpu0.commit.basicBlocks.trace::75358            2                       # Basic block distribution
system.cpu0.commit.basicBlocks.trace::75368            2                       # Basic block distribution
system.cpu0.commit.basicBlocks.trace::75374            2                       # Basic block distribution
system.cpu0.commit.basicBlocks.trace::75378            2                       # Basic block distribution
system.cpu0.commit.basicBlocks.trace::75384            2                       # Basic block distribution
system.cpu0.commit.basicBlocks.trace::77694            2                       # Basic block distribution
system.cpu0.commit.basicBlocks.trace::77704            2                       # Basic block distribution
system.cpu0.commit.basicBlocks.trace::77714            2                       # Basic block distribution
system.cpu0.commit.basicBlocks.trace::77720            2                       # Basic block distribution
system.cpu0.commit.basicBlocks.trace::77738            2                       # Basic block distribution
system.cpu0.commit.basicBlocks.trace::77742            2                       # Basic block distribution
system.cpu0.commit.basicBlocks.trace::77928            2                       # Basic block distribution
system.cpu0.commit.basicBlocks.trace::78932            3                       # Basic block distribution
system.cpu0.commit.basicBlocks.trace::78948            3                       # Basic block distribution
system.cpu0.commit.basicBlocks.trace::78964            3                       # Basic block distribution
system.cpu0.commit.basicBlocks.trace::78966            3                       # Basic block distribution
system.cpu0.commit.basicBlocks.trace::78982            3                       # Basic block distribution
system.cpu0.commit.basicBlocks.trace::78998            3                       # Basic block distribution
system.cpu0.commit.basicBlocks.trace::79004            3                       # Basic block distribution
system.cpu0.commit.basicBlocks.trace::79010            3                       # Basic block distribution
system.cpu0.commit.basicBlocks.trace::79020            3                       # Basic block distribution
system.cpu0.commit.basicBlocks.trace::79054            3                       # Basic block distribution
system.cpu0.commit.basicBlocks.trace::79058            3                       # Basic block distribution
system.cpu0.commit.basicBlocks.trace::79082            3                       # Basic block distribution
system.cpu0.commit.basicBlocks.trace::79088            3                       # Basic block distribution
system.cpu0.commit.basicBlocks.trace::79094            3                       # Basic block distribution
system.cpu0.commit.basicBlocks.trace::79102            3                       # Basic block distribution
system.cpu0.commit.basicBlocks.trace::80626            1                       # Basic block distribution
system.cpu0.commit.basicBlocks.trace::80748           15                       # Basic block distribution
system.cpu0.commit.basicBlocks.trace::80758            1                       # Basic block distribution
system.cpu0.commit.basicBlocks.trace::80784            1                       # Basic block distribution
system.cpu0.commit.basicBlocks.trace::80814            1                       # Basic block distribution
system.cpu0.commit.basicBlocks.trace::80854            1                       # Basic block distribution
system.cpu0.commit.basicBlocks.trace::80874            1                       # Basic block distribution
system.cpu0.commit.basicBlocks.trace::80910            1                       # Basic block distribution
system.cpu0.commit.basicBlocks.trace::80912            1                       # Basic block distribution
system.cpu0.commit.basicBlocks.trace::80920            1                       # Basic block distribution
system.cpu0.commit.basicBlocks.trace::80934            1                       # Basic block distribution
system.cpu0.commit.basicBlocks.trace::80956            1                       # Basic block distribution
system.cpu0.commit.basicBlocks.trace::80986            1                       # Basic block distribution
system.cpu0.commit.basicBlocks.trace::80992            1                       # Basic block distribution
system.cpu0.commit.basicBlocks.trace::80996            1                       # Basic block distribution
system.cpu0.commit.basicBlocks.trace::81036            1                       # Basic block distribution
system.cpu0.commit.basicBlocks.trace::81086            1                       # Basic block distribution
system.cpu0.commit.basicBlocks.trace::81446            2                       # Basic block distribution
system.cpu0.commit.basicBlocks.trace::81460            2                       # Basic block distribution
system.cpu0.commit.basicBlocks.trace::81480            2                       # Basic block distribution
system.cpu0.commit.basicBlocks.trace::81504            2                       # Basic block distribution
system.cpu0.commit.basicBlocks.trace::81516            2                       # Basic block distribution
system.cpu0.commit.basicBlocks.trace::81526            2                       # Basic block distribution
system.cpu0.commit.basicBlocks.trace::81626            1                       # Basic block distribution
system.cpu0.commit.basicBlocks.trace::81670            1                       # Basic block distribution
system.cpu0.commit.basicBlocks.trace::81706            1                       # Basic block distribution
system.cpu0.commit.basicBlocks.trace::81710            1                       # Basic block distribution
system.cpu0.commit.basicBlocks.trace::81722            1                       # Basic block distribution
system.cpu0.commit.basicBlocks.trace::81726            1                       # Basic block distribution
system.cpu0.commit.basicBlocks.trace::81734            1                       # Basic block distribution
system.cpu0.commit.basicBlocks.trace::81738            1                       # Basic block distribution
system.cpu0.commit.basicBlocks.trace::81830            1                       # Basic block distribution
system.cpu0.commit.basicBlocks.trace::81840            1                       # Basic block distribution
system.cpu0.commit.basicBlocks.trace::81844            1                       # Basic block distribution
system.cpu0.commit.basicBlocks.trace::81944            1                       # Basic block distribution
system.cpu0.commit.basicBlocks.trace::81956            1                       # Basic block distribution
system.cpu0.commit.basicBlocks.trace::81958            1                       # Basic block distribution
system.cpu0.commit.basicBlocks.trace::81968            1                       # Basic block distribution
system.cpu0.commit.basicBlocks.trace::81980            1                       # Basic block distribution
system.cpu0.commit.basicBlocks.trace::81982            1                       # Basic block distribution
system.cpu0.commit.basicBlocks.trace::81992            1                       # Basic block distribution
system.cpu0.commit.basicBlocks.trace::82000            1                       # Basic block distribution
system.cpu0.commit.basicBlocks.trace::82006            1                       # Basic block distribution
system.cpu0.commit.basicBlocks.trace::82008            1                       # Basic block distribution
system.cpu0.commit.basicBlocks.trace::82038            1                       # Basic block distribution
system.cpu0.commit.basicBlocks.trace::82120            1                       # Basic block distribution
system.cpu0.commit.basicBlocks.trace::82124            1                       # Basic block distribution
system.cpu0.commit.basicBlocks.trace::82128            1                       # Basic block distribution
system.cpu0.commit.basicBlocks.trace::82142            1                       # Basic block distribution
system.cpu0.commit.basicBlocks.trace::82424            1                       # Basic block distribution
system.cpu0.commit.basicBlocks.trace::82464            1                       # Basic block distribution
system.cpu0.commit.basicBlocks.trace::82486            1                       # Basic block distribution
system.cpu0.commit.basicBlocks.trace::82494            1                       # Basic block distribution
system.cpu0.commit.basicBlocks.trace::82498            3                       # Basic block distribution
system.cpu0.commit.basicBlocks.trace::82504            3                       # Basic block distribution
system.cpu0.commit.basicBlocks.trace::82534            1                       # Basic block distribution
system.cpu0.commit.basicBlocks.trace::82556            1                       # Basic block distribution
system.cpu0.commit.basicBlocks.trace::82618            1                       # Basic block distribution
system.cpu0.commit.basicBlocks.trace::82766            1                       # Basic block distribution
system.cpu0.commit.basicBlocks.trace::82786            1                       # Basic block distribution
system.cpu0.commit.basicBlocks.trace::82790            1                       # Basic block distribution
system.cpu0.commit.basicBlocks.trace::82888            1                       # Basic block distribution
system.cpu0.commit.basicBlocks.trace::82938            1                       # Basic block distribution
system.cpu0.commit.basicBlocks.trace::82956            1                       # Basic block distribution
system.cpu0.commit.basicBlocks.trace::82962            1                       # Basic block distribution
system.cpu0.commit.basicBlocks.trace::82990            1                       # Basic block distribution
system.cpu0.commit.basicBlocks.trace::83008            1                       # Basic block distribution
system.cpu0.commit.basicBlocks.trace::83014            1                       # Basic block distribution
system.cpu0.commit.basicBlocks.trace::83032            1                       # Basic block distribution
system.cpu0.commit.basicBlocks.trace::83066            1                       # Basic block distribution
system.cpu0.commit.basicBlocks.trace::83076            1                       # Basic block distribution
system.cpu0.commit.basicBlocks.trace::83084            2                       # Basic block distribution
system.cpu0.commit.basicBlocks.trace::83088            1                       # Basic block distribution
system.cpu0.commit.basicBlocks.trace::83424            1                       # Basic block distribution
system.cpu0.commit.basicBlocks.trace::96968            1                       # Basic block distribution
system.cpu0.commit.basicBlocks.trace::96976            1                       # Basic block distribution
system.cpu0.commit.basicBlocks.trace::97076            1                       # Basic block distribution
system.cpu0.commit.basicBlocks.trace::97086            1                       # Basic block distribution
system.cpu0.commit.basicBlocks.trace::98702            7                       # Basic block distribution
system.cpu0.commit.basicBlocks.trace::98726            7                       # Basic block distribution
system.cpu0.commit.basicBlocks.trace::98734            7                       # Basic block distribution
system.cpu0.commit.basicBlocks.trace::98836            7                       # Basic block distribution
system.cpu0.commit.basicBlocks.trace::98858            7                       # Basic block distribution
system.cpu0.commit.basicBlocks.trace::98862            7                       # Basic block distribution
system.cpu0.commit.basicBlocks.trace::98966            1                       # Basic block distribution
system.cpu0.commit.basicBlocks.trace::99002            1                       # Basic block distribution
system.cpu0.commit.basicBlocks.trace::99016            2                       # Basic block distribution
system.cpu0.commit.basicBlocks.trace::99028            1                       # Basic block distribution
system.cpu0.commit.basicBlocks.trace::99042            1                       # Basic block distribution
system.cpu0.commit.basicBlocks.trace::99054            1                       # Basic block distribution
system.cpu0.commit.basicBlocks.trace::99064            1                       # Basic block distribution
system.cpu0.commit.basicBlocks.trace::99068            1                       # Basic block distribution
system.cpu0.commit.basicBlocks.trace::99088            1                       # Basic block distribution
system.cpu0.commit.basicBlocks.trace::99108            1                       # Basic block distribution
system.cpu0.commit.basicBlocks.trace::99112            1                       # Basic block distribution
system.cpu0.commit.basicBlocks.trace::99142            1                       # Basic block distribution
system.cpu0.commit.basicBlocks.trace::99154            1                       # Basic block distribution
system.cpu0.commit.basicBlocks.trace::99174            1                       # Basic block distribution
system.cpu0.commit.basicBlocks.trace::99190            1                       # Basic block distribution
system.cpu0.commit.basicBlocks.trace::99216            1                       # Basic block distribution
system.cpu0.commit.basicBlocks.trace::99222            1                       # Basic block distribution
system.cpu0.commit.basicBlocks.trace::99226            1                       # Basic block distribution
system.cpu0.commit.basicBlocks.trace::99232            1                       # Basic block distribution
system.cpu0.commit.basicBlocks.trace::99276            1                       # Basic block distribution
system.cpu0.commit.basicBlocks.trace::99312            1                       # Basic block distribution
system.cpu0.commit.basicBlocks.trace::99354            1                       # Basic block distribution
system.cpu0.commit.basicBlocks.trace::99392            1                       # Basic block distribution
system.cpu0.commit.basicBlocks.trace::99524            1                       # Basic block distribution
system.cpu0.commit.basicBlocks.trace::99548            1                       # Basic block distribution
system.cpu0.commit.basicBlocks.trace::99550            1                       # Basic block distribution
system.cpu0.commit.basicBlocks.trace::100922            4                       # Basic block distribution
system.cpu0.commit.basicBlocks.trace::100958            4                       # Basic block distribution
system.cpu0.commit.basicBlocks.trace::107706            1                       # Basic block distribution
system.cpu0.commit.basicBlocks.trace::107718            1                       # Basic block distribution
system.cpu0.commit.basicBlocks.trace::107720            1                       # Basic block distribution
system.cpu0.commit.basicBlocks.trace::107832            4                       # Basic block distribution
system.cpu0.commit.basicBlocks.trace::107896            4                       # Basic block distribution
system.cpu0.commit.basicBlocks.trace::107900            4                       # Basic block distribution
system.cpu0.commit.basicBlocks.trace::107912            4                       # Basic block distribution
system.cpu0.commit.basicBlocks.trace::107924            4                       # Basic block distribution
system.cpu0.commit.basicBlocks.trace::107946            4                       # Basic block distribution
system.cpu0.commit.basicBlocks.trace::107968            4                       # Basic block distribution
system.cpu0.commit.basicBlocks.trace::107980            4                       # Basic block distribution
system.cpu0.commit.basicBlocks.trace::110432            4                       # Basic block distribution
system.cpu0.commit.basicBlocks.trace::110452            4                       # Basic block distribution
system.cpu0.commit.basicBlocks.trace::110476            4                       # Basic block distribution
system.cpu0.commit.basicBlocks.trace::110480            4                       # Basic block distribution
system.cpu0.commit.basicBlocks.trace::110484            4                       # Basic block distribution
system.cpu0.commit.basicBlocks.trace::110492            4                       # Basic block distribution
system.cpu0.commit.basicBlocks.trace::110534            4                       # Basic block distribution
system.cpu0.commit.basicBlocks.trace::110548            4                       # Basic block distribution
system.cpu0.commit.basicBlocks.trace::111528           18                       # Basic block distribution
system.cpu0.commit.basicBlocks.trace::111548           18                       # Basic block distribution
system.cpu0.commit.basicBlocks.trace::111582            4                       # Basic block distribution
system.cpu0.commit.basicBlocks.trace::111612            4                       # Basic block distribution
system.cpu0.commit.basicBlocks.trace::111622            4                       # Basic block distribution
system.cpu0.commit.basicBlocks.trace::111628            4                       # Basic block distribution
system.cpu0.commit.basicBlocks.trace::111644            4                       # Basic block distribution
system.cpu0.commit.basicBlocks.trace::111656            4                       # Basic block distribution
system.cpu0.commit.basicBlocks.trace::111662           18                       # Basic block distribution
system.cpu0.commit.basicBlocks.trace::111682           18                       # Basic block distribution
system.cpu0.commit.basicBlocks.trace::111692           18                       # Basic block distribution
system.cpu0.commit.basicBlocks.trace::111700           18                       # Basic block distribution
system.cpu0.commit.basicBlocks.trace::111712           14                       # Basic block distribution
system.cpu0.commit.basicBlocks.trace::111714           72                       # Basic block distribution
system.cpu0.commit.basicBlocks.trace::111718           72                       # Basic block distribution
system.cpu0.commit.basicBlocks.trace::111728            4                       # Basic block distribution
system.cpu0.commit.basicBlocks.trace::111748           18                       # Basic block distribution
system.cpu0.commit.basicBlocks.trace::111754           18                       # Basic block distribution
system.cpu0.commit.basicBlocks.trace::111762           18                       # Basic block distribution
system.cpu0.commit.basicBlocks.trace::111776           14                       # Basic block distribution
system.cpu0.commit.basicBlocks.trace::111840           14                       # Basic block distribution
system.cpu0.commit.basicBlocks.trace::111860            4                       # Basic block distribution
system.cpu0.commit.basicBlocks.trace::112306            4                       # Basic block distribution
system.cpu0.commit.basicBlocks.trace::112312            4                       # Basic block distribution
system.cpu0.commit.basicBlocks.trace::112324            4                       # Basic block distribution
system.cpu0.commit.basicBlocks.trace::113646            4                       # Basic block distribution
system.cpu0.commit.basicBlocks.trace::113656            4                       # Basic block distribution
system.cpu0.commit.basicBlocks.trace::113680            4                       # Basic block distribution
system.cpu0.commit.basicBlocks.trace::113682            4                       # Basic block distribution
system.cpu0.commit.basicBlocks.trace::113802            4                       # Basic block distribution
system.cpu0.commit.basicBlocks.trace::113988            1                       # Basic block distribution
system.cpu0.commit.basicBlocks.trace::114036            1                       # Basic block distribution
system.cpu0.commit.basicBlocks.trace::114090            1                       # Basic block distribution
system.cpu0.commit.basicBlocks.trace::116970            1                       # Basic block distribution
system.cpu0.commit.basicBlocks.trace::117016            1                       # Basic block distribution
system.cpu0.commit.basicBlocks.trace::117022            1                       # Basic block distribution
system.cpu0.commit.basicBlocks.trace::117028            1                       # Basic block distribution
system.cpu0.commit.basicBlocks.trace::117070            1                       # Basic block distribution
system.cpu0.commit.basicBlocks.trace::117086            1                       # Basic block distribution
system.cpu0.commit.basicBlocks.trace::117090            1                       # Basic block distribution
system.cpu0.commit.basicBlocks.trace::117320            1                       # Basic block distribution
system.cpu0.commit.basicBlocks.trace::117326            1                       # Basic block distribution
system.cpu0.commit.basicBlocks.trace::117338            3                       # Basic block distribution
system.cpu0.commit.basicBlocks.trace::117350            1                       # Basic block distribution
system.cpu0.commit.basicBlocks.trace::117960            1                       # Basic block distribution
system.cpu0.commit.basicBlocks.trace::118098            1                       # Basic block distribution
system.cpu0.commit.basicBlocks.trace::118124            2                       # Basic block distribution
system.cpu0.commit.basicBlocks.trace::118180            3                       # Basic block distribution
system.cpu0.commit.basicBlocks.trace::118222            3                       # Basic block distribution
system.cpu0.commit.basicBlocks.trace::118244            3                       # Basic block distribution
system.cpu0.commit.basicBlocks.trace::118260            3                       # Basic block distribution
system.cpu0.commit.basicBlocks.trace::118264            1                       # Basic block distribution
system.cpu0.commit.basicBlocks.trace::118266            1                       # Basic block distribution
system.cpu0.commit.basicBlocks.trace::118282            1                       # Basic block distribution
system.cpu0.commit.basicBlocks.trace::118314            1                       # Basic block distribution
system.cpu0.commit.basicBlocks.trace::118334            3                       # Basic block distribution
system.cpu0.commit.basicBlocks.trace::118362            3                       # Basic block distribution
system.cpu0.commit.basicBlocks.trace::118508            1                       # Basic block distribution
system.cpu0.commit.basicBlocks.trace::118536            1                       # Basic block distribution
system.cpu0.commit.basicBlocks.trace::118544            1                       # Basic block distribution
system.cpu0.commit.basicBlocks.trace::118568            3                       # Basic block distribution
system.cpu0.commit.basicBlocks.trace::118578            3                       # Basic block distribution
system.cpu0.commit.basicBlocks.trace::118586            2                       # Basic block distribution
system.cpu0.commit.basicBlocks.trace::118592            1                       # Basic block distribution
system.cpu0.commit.basicBlocks.trace::118596            1                       # Basic block distribution
system.cpu0.commit.basicBlocks.trace::118606            1                       # Basic block distribution
system.cpu0.commit.basicBlocks.trace::118616            1                       # Basic block distribution
system.cpu0.commit.basicBlocks.trace::118622            1                       # Basic block distribution
system.cpu0.commit.basicBlocks.trace::118628            1                       # Basic block distribution
system.cpu0.commit.basicBlocks.trace::118642            1                       # Basic block distribution
system.cpu0.commit.basicBlocks.trace::118662            1                       # Basic block distribution
system.cpu0.commit.basicBlocks.trace::118674            1                       # Basic block distribution
system.cpu0.commit.basicBlocks.trace::118682            1                       # Basic block distribution
system.cpu0.commit.basicBlocks.trace::118686            1                       # Basic block distribution
system.cpu0.commit.basicBlocks.trace::118690            1                       # Basic block distribution
system.cpu0.commit.basicBlocks.trace::118700            1                       # Basic block distribution
system.cpu0.commit.basicBlocks.trace::118740            1                       # Basic block distribution
system.cpu0.commit.basicBlocks.trace::118832            1                       # Basic block distribution
system.cpu0.commit.basicBlocks.trace::121446            1                       # Basic block distribution
system.cpu0.commit.basicBlocks.trace::121460          126                       # Basic block distribution
system.cpu0.commit.basicBlocks.trace::121470            1                       # Basic block distribution
system.cpu0.commit.basicBlocks.trace::121498            1                       # Basic block distribution
system.cpu0.commit.basicBlocks.trace::123444            1                       # Basic block distribution
system.cpu0.commit.basicBlocks.trace::123902            1                       # Basic block distribution
system.cpu0.commit.basicBlocks.trace::124286            1                       # Basic block distribution
system.cpu0.commit.basicBlocks.trace::124324            1                       # Basic block distribution
system.cpu0.commit.basicBlocks.trace::124330            1                       # Basic block distribution
system.cpu0.commit.basicBlocks.trace::124336            1                       # Basic block distribution
system.cpu0.commit.basicBlocks.trace::124344            1                       # Basic block distribution
system.cpu0.commit.basicBlocks.trace::124360            1                       # Basic block distribution
system.cpu0.commit.basicBlocks.trace::124376            1                       # Basic block distribution
system.cpu0.commit.basicBlocks.trace::124392            1                       # Basic block distribution
system.cpu0.commit.basicBlocks.trace::124408            1                       # Basic block distribution
system.cpu0.commit.basicBlocks.trace::124424            1                       # Basic block distribution
system.cpu0.commit.basicBlocks.trace::124440            1                       # Basic block distribution
system.cpu0.commit.basicBlocks.trace::124456            1                       # Basic block distribution
system.cpu0.commit.basicBlocks.trace::124472            1                       # Basic block distribution
system.cpu0.commit.basicBlocks.trace::124488            1                       # Basic block distribution
system.cpu0.commit.basicBlocks.trace::124504            1                       # Basic block distribution
system.cpu0.commit.basicBlocks.trace::124520            1                       # Basic block distribution
system.cpu0.commit.basicBlocks.trace::124542            1                       # Basic block distribution
system.cpu0.commit.basicBlocks.trace::129514            1                       # Basic block distribution
system.cpu0.commit.basicBlocks.trace::129552            1                       # Basic block distribution
system.cpu0.commit.basicBlocks.trace::129570            1                       # Basic block distribution
system.cpu0.commit.basicBlocks.trace::129754            1                       # Basic block distribution
system.cpu0.commit.basicBlocks.trace::129766            1                       # Basic block distribution
system.cpu0.commit.basicBlocks.trace::129780            1                       # Basic block distribution
system.cpu0.commit.basicBlocks.trace::129796            1                       # Basic block distribution
system.cpu0.commit.basicBlocks.trace::130146            1                       # Basic block distribution
system.cpu0.commit.basicBlocks.trace::130150            1                       # Basic block distribution
system.cpu0.commit.basicBlocks.trace::130154            1                       # Basic block distribution
system.cpu0.commit.basicBlocks.trace::130188            1                       # Basic block distribution
system.cpu0.commit.basicBlocks.trace::130196            1                       # Basic block distribution
system.cpu0.commit.basicBlocks.trace::130210            1                       # Basic block distribution
system.cpu0.commit.basicBlocks.trace::130220            1                       # Basic block distribution
system.cpu0.commit.basicBlocks.trace::130228            1                       # Basic block distribution
system.cpu0.commit.basicBlocks.trace::130246            1                       # Basic block distribution
system.cpu0.commit.basicBlocks.trace::130256            1                       # Basic block distribution
system.cpu0.commit.basicBlocks.trace::130274            1                       # Basic block distribution
system.cpu0.commit.basicBlocks.trace::130282            1                       # Basic block distribution
system.cpu0.commit.basicBlocks.trace::130306            1                       # Basic block distribution
system.cpu0.commit.basicBlocks.trace::130314            1                       # Basic block distribution
system.cpu0.commit.basicBlocks.trace::130328            1                       # Basic block distribution
system.cpu0.commit.basicBlocks.trace::130336            1                       # Basic block distribution
system.cpu0.commit.basicBlocks.trace::130346            1                       # Basic block distribution
system.cpu0.commit.basicBlocks.trace::130518            1                       # Basic block distribution
system.cpu0.commit.basicBlocks.trace::130624            1                       # Basic block distribution
system.cpu0.commit.basicBlocks.trace::131062            8                       # Basic block distribution
system.cpu0.commit.basicBlocks.trace::131098            8                       # Basic block distribution
system.cpu0.commit.basicBlocks.trace::131112            8                       # Basic block distribution
system.cpu0.commit.basicBlocks.trace::131120            8                       # Basic block distribution
system.cpu0.commit.basicBlocks.trace::131132            8                       # Basic block distribution
system.cpu0.commit.basicBlocks.trace::131140            1                       # Basic block distribution
system.cpu0.commit.basicBlocks.trace::131196            1                       # Basic block distribution
system.cpu0.commit.basicBlocks.trace::131246            1                       # Basic block distribution
system.cpu0.commit.basicBlocks.trace::131254            8                       # Basic block distribution
system.cpu0.commit.basicBlocks.trace::131270            7                       # Basic block distribution
system.cpu0.commit.basicBlocks.trace::131290            1                       # Basic block distribution
system.cpu0.commit.basicBlocks.trace::131522            7                       # Basic block distribution
system.cpu0.commit.basicBlocks.trace::131744            8                       # Basic block distribution
system.cpu0.commit.basicBlocks.trace::131864            8                       # Basic block distribution
system.cpu0.commit.basicBlocks.trace::131872            1                       # Basic block distribution
system.cpu0.commit.basicBlocks.trace::131904            8                       # Basic block distribution
system.cpu0.commit.basicBlocks.trace::132286            3                       # Basic block distribution
system.cpu0.commit.basicBlocks.trace::132318            3                       # Basic block distribution
system.cpu0.commit.basicBlocks.trace::132630            1                       # Basic block distribution
system.cpu0.commit.basicBlocks.trace::132650            7                       # Basic block distribution
system.cpu0.commit.basicBlocks.trace::132758           21                       # Basic block distribution
system.cpu0.commit.basicBlocks.trace::132776           29                       # Basic block distribution
system.cpu0.commit.basicBlocks.trace::132788            8                       # Basic block distribution
system.cpu0.commit.basicBlocks.trace::132802            1                       # Basic block distribution
system.cpu0.commit.basicBlocks.trace::133060            7                       # Basic block distribution
system.cpu0.commit.basicBlocks.trace::133148            8                       # Basic block distribution
system.cpu0.commit.basicBlocks.trace::133416            1                       # Basic block distribution
system.cpu0.commit.basicBlocks.trace::133424            1                       # Basic block distribution
system.cpu0.commit.basicBlocks.trace::133434            7                       # Basic block distribution
system.cpu0.commit.basicBlocks.trace::133458            7                       # Basic block distribution
system.cpu0.commit.basicBlocks.trace::133502            7                       # Basic block distribution
system.cpu0.commit.basicBlocks.trace::134020            1                       # Basic block distribution
system.cpu0.commit.basicBlocks.trace::134034            1                       # Basic block distribution
system.cpu0.commit.basicBlocks.trace::134040            1                       # Basic block distribution
system.cpu0.commit.basicBlocks.trace::134052            1                       # Basic block distribution
system.cpu0.commit.basicBlocks.trace::134058            1                       # Basic block distribution
system.cpu0.commit.basicBlocks.trace::134062            1                       # Basic block distribution
system.cpu0.commit.basicBlocks.trace::134072            1                       # Basic block distribution
system.cpu0.commit.basicBlocks.trace::134076            1                       # Basic block distribution
system.cpu0.commit.basicBlocks.trace::134094            1                       # Basic block distribution
system.cpu0.commit.basicBlocks.trace::136898            5                       # Basic block distribution
system.cpu0.commit.basicBlocks.trace::136906            4                       # Basic block distribution
system.cpu0.commit.basicBlocks.trace::136930            4                       # Basic block distribution
system.cpu0.commit.basicBlocks.trace::136936            3                       # Basic block distribution
system.cpu0.commit.basicBlocks.trace::136948            4                       # Basic block distribution
system.cpu0.commit.basicBlocks.trace::136954            4                       # Basic block distribution
system.cpu0.commit.basicBlocks.trace::136960            4                       # Basic block distribution
system.cpu0.commit.basicBlocks.trace::136970            4                       # Basic block distribution
system.cpu0.commit.basicBlocks.trace::136976            4                       # Basic block distribution
system.cpu0.commit.basicBlocks.trace::136982            4                       # Basic block distribution
system.cpu0.commit.basicBlocks.trace::136990            4                       # Basic block distribution
system.cpu0.commit.basicBlocks.trace::136994            4                       # Basic block distribution
system.cpu0.commit.basicBlocks.trace::137012            4                       # Basic block distribution
system.cpu0.commit.basicBlocks.trace::137022            4                       # Basic block distribution
system.cpu0.commit.basicBlocks.trace::137042            4                       # Basic block distribution
system.cpu0.commit.basicBlocks.trace::137056            4                       # Basic block distribution
system.cpu0.commit.basicBlocks.trace::137090            1                       # Basic block distribution
system.cpu0.commit.basicBlocks.trace::137096            1                       # Basic block distribution
system.cpu0.commit.basicBlocks.trace::137100            1                       # Basic block distribution
system.cpu0.commit.basicBlocks.trace::137112            1                       # Basic block distribution
system.cpu0.commit.basicBlocks.trace::137118            3                       # Basic block distribution
system.cpu0.commit.basicBlocks.trace::137146            4                       # Basic block distribution
system.cpu0.commit.basicBlocks.trace::137244            1                       # Basic block distribution
system.cpu0.commit.basicBlocks.trace::137290            1                       # Basic block distribution
system.cpu0.commit.basicBlocks.trace::137302            1                       # Basic block distribution
system.cpu0.commit.basicBlocks.trace::137312            1                       # Basic block distribution
system.cpu0.commit.basicBlocks.trace::138694            3                       # Basic block distribution
system.cpu0.commit.basicBlocks.trace::138726            3                       # Basic block distribution
system.cpu0.commit.basicBlocks.trace::138734            3                       # Basic block distribution
system.cpu0.commit.basicBlocks.trace::138742            3                       # Basic block distribution
system.cpu0.commit.basicBlocks.trace::138748            3                       # Basic block distribution
system.cpu0.commit.basicBlocks.trace::138754            3                       # Basic block distribution
system.cpu0.commit.basicBlocks.trace::138764            3                       # Basic block distribution
system.cpu0.commit.basicBlocks.trace::138770            3                       # Basic block distribution
system.cpu0.commit.basicBlocks.trace::138776            3                       # Basic block distribution
system.cpu0.commit.basicBlocks.trace::138822            3                       # Basic block distribution
system.cpu0.commit.basicBlocks.trace::138830            3                       # Basic block distribution
system.cpu0.commit.basicBlocks.trace::138834            3                       # Basic block distribution
system.cpu0.commit.basicBlocks.trace::138844            3                       # Basic block distribution
system.cpu0.commit.basicBlocks.trace::138850            3                       # Basic block distribution
system.cpu0.commit.basicBlocks.trace::138854            3                       # Basic block distribution
system.cpu0.commit.basicBlocks.trace::138856            3                       # Basic block distribution
system.cpu0.commit.basicBlocks.trace::138874            3                       # Basic block distribution
system.cpu0.commit.basicBlocks.trace::138896            3                       # Basic block distribution
system.cpu0.commit.basicBlocks.trace::138978            3                       # Basic block distribution
system.cpu0.commit.basicBlocks.trace::138986            3                       # Basic block distribution
system.cpu0.commit.basicBlocks.trace::138990            3                       # Basic block distribution
system.cpu0.commit.basicBlocks.trace::138998            3                       # Basic block distribution
system.cpu0.commit.basicBlocks.trace::139112            3                       # Basic block distribution
system.cpu0.commit.basicBlocks.trace::139186            3                       # Basic block distribution
system.cpu0.commit.basicBlocks.trace::139194            3                       # Basic block distribution
system.cpu0.commit.basicBlocks.trace::141072            2                       # Basic block distribution
system.cpu0.commit.basicBlocks.trace::141080            2                       # Basic block distribution
system.cpu0.commit.basicBlocks.trace::141086            2                       # Basic block distribution
system.cpu0.commit.basicBlocks.trace::141096            7                       # Basic block distribution
system.cpu0.commit.basicBlocks.trace::141106            2                       # Basic block distribution
system.cpu0.commit.basicBlocks.trace::141108           15                       # Basic block distribution
system.cpu0.commit.basicBlocks.trace::141110           15                       # Basic block distribution
system.cpu0.commit.basicBlocks.trace::141118           17                       # Basic block distribution
system.cpu0.commit.basicBlocks.trace::141126            2                       # Basic block distribution
system.cpu0.commit.basicBlocks.trace::141128            5                       # Basic block distribution
system.cpu0.commit.basicBlocks.trace::141172            2                       # Basic block distribution
system.cpu0.commit.basicBlocks.trace::141208            5                       # Basic block distribution
system.cpu0.commit.basicBlocks.trace::141216            5                       # Basic block distribution
system.cpu0.commit.basicBlocks.trace::141218            5                       # Basic block distribution
system.cpu0.commit.basicBlocks.trace::141226            4                       # Basic block distribution
system.cpu0.commit.basicBlocks.trace::141228            4                       # Basic block distribution
system.cpu0.commit.basicBlocks.trace::141236            4                       # Basic block distribution
system.cpu0.commit.basicBlocks.trace::141238            4                       # Basic block distribution
system.cpu0.commit.basicBlocks.trace::141246            3                       # Basic block distribution
system.cpu0.commit.basicBlocks.trace::141248            3                       # Basic block distribution
system.cpu0.commit.basicBlocks.trace::141256            2                       # Basic block distribution
system.cpu0.commit.basicBlocks.trace::141258            2                       # Basic block distribution
system.cpu0.commit.basicBlocks.trace::141266            2                       # Basic block distribution
system.cpu0.commit.basicBlocks.trace::141268            2                       # Basic block distribution
system.cpu0.commit.basicBlocks.trace::141276            2                       # Basic block distribution
system.cpu0.commit.basicBlocks.trace::141278            1                       # Basic block distribution
system.cpu0.commit.basicBlocks.trace::141288            1                       # Basic block distribution
system.cpu0.commit.basicBlocks.trace::141292            2                       # Basic block distribution
system.cpu0.commit.basicBlocks.trace::141296            1                       # Basic block distribution
system.cpu0.commit.basicBlocks.trace::141304            1                       # Basic block distribution
system.cpu0.commit.basicBlocks.trace::141308            1                       # Basic block distribution
system.cpu0.commit.basicBlocks.trace::141320            1                       # Basic block distribution
system.cpu0.commit.basicBlocks.trace::142036            7                       # Basic block distribution
system.cpu0.commit.basicBlocks.trace::142044            7                       # Basic block distribution
system.cpu0.commit.basicBlocks.trace::142054            8                       # Basic block distribution
system.cpu0.commit.basicBlocks.trace::142074            7                       # Basic block distribution
system.cpu0.commit.basicBlocks.trace::142084            6                       # Basic block distribution
system.cpu0.commit.basicBlocks.trace::142090            5                       # Basic block distribution
system.cpu0.commit.basicBlocks.trace::142096            5                       # Basic block distribution
system.cpu0.commit.basicBlocks.trace::142102            3                       # Basic block distribution
system.cpu0.commit.basicBlocks.trace::142116            3                       # Basic block distribution
system.cpu0.commit.basicBlocks.trace::142118            3                       # Basic block distribution
system.cpu0.commit.basicBlocks.trace::142150            1                       # Basic block distribution
system.cpu0.commit.basicBlocks.trace::142156            1                       # Basic block distribution
system.cpu0.commit.basicBlocks.trace::142162            2                       # Basic block distribution
system.cpu0.commit.basicBlocks.trace::145356            7                       # Basic block distribution
system.cpu0.commit.basicBlocks.trace::145364            7                       # Basic block distribution
system.cpu0.commit.basicBlocks.trace::145370            7                       # Basic block distribution
system.cpu0.commit.basicBlocks.trace::145372            7                       # Basic block distribution
system.cpu0.commit.basicBlocks.trace::145380           92                       # Basic block distribution
system.cpu0.commit.basicBlocks.trace::145390            7                       # Basic block distribution
system.cpu0.commit.basicBlocks.trace::145392            4                       # Basic block distribution
system.cpu0.commit.basicBlocks.trace::145394            3                       # Basic block distribution
system.cpu0.commit.basicBlocks.trace::145438            6                       # Basic block distribution
system.cpu0.commit.basicBlocks.trace::145496            3                       # Basic block distribution
system.cpu0.commit.basicBlocks.trace::145512            3                       # Basic block distribution
system.cpu0.commit.basicBlocks.trace::145524            3                       # Basic block distribution
system.cpu0.commit.basicBlocks.trace::145526           23                       # Basic block distribution
system.cpu0.commit.basicBlocks.trace::145538           23                       # Basic block distribution
system.cpu0.commit.basicBlocks.trace::145648           26                       # Basic block distribution
system.cpu0.commit.basicBlocks.trace::145660           15                       # Basic block distribution
system.cpu0.commit.basicBlocks.trace::145666           10                       # Basic block distribution
system.cpu0.commit.basicBlocks.trace::145674           10                       # Basic block distribution
system.cpu0.commit.basicBlocks.trace::145686           10                       # Basic block distribution
system.cpu0.commit.basicBlocks.trace::145690           10                       # Basic block distribution
system.cpu0.commit.basicBlocks.trace::145694           32                       # Basic block distribution
system.cpu0.commit.basicBlocks.trace::145710           10                       # Basic block distribution
system.cpu0.commit.basicBlocks.trace::145728            6                       # Basic block distribution
system.cpu0.commit.basicBlocks.trace::145730           16                       # Basic block distribution
system.cpu0.commit.basicBlocks.trace::145736           72                       # Basic block distribution
system.cpu0.commit.basicBlocks.trace::145752           20                       # Basic block distribution
system.cpu0.commit.basicBlocks.trace::145792            2                       # Basic block distribution
system.cpu0.commit.basicBlocks.trace::145876            2                       # Basic block distribution
system.cpu0.commit.basicBlocks.trace::146856           11                       # Basic block distribution
system.cpu0.commit.basicBlocks.trace::146866            6                       # Basic block distribution
system.cpu0.commit.basicBlocks.trace::146874            6                       # Basic block distribution
system.cpu0.commit.basicBlocks.trace::146878            9                       # Basic block distribution
system.cpu0.commit.basicBlocks.trace::146886            6                       # Basic block distribution
system.cpu0.commit.basicBlocks.trace::146888           12                       # Basic block distribution
system.cpu0.commit.basicBlocks.trace::146896            8                       # Basic block distribution
system.cpu0.commit.basicBlocks.trace::146940            3                       # Basic block distribution
system.cpu0.commit.basicBlocks.trace::146976            8                       # Basic block distribution
system.cpu0.commit.basicBlocks.trace::146984            8                       # Basic block distribution
system.cpu0.commit.basicBlocks.trace::146986            5                       # Basic block distribution
system.cpu0.commit.basicBlocks.trace::146996            5                       # Basic block distribution
system.cpu0.commit.basicBlocks.trace::146998            4                       # Basic block distribution
system.cpu0.commit.basicBlocks.trace::147010            4                       # Basic block distribution
system.cpu0.commit.basicBlocks.trace::147012            4                       # Basic block distribution
system.cpu0.commit.basicBlocks.trace::147024            4                       # Basic block distribution
system.cpu0.commit.basicBlocks.trace::147026            4                       # Basic block distribution
system.cpu0.commit.basicBlocks.trace::147038            4                       # Basic block distribution
system.cpu0.commit.basicBlocks.trace::147040            4                       # Basic block distribution
system.cpu0.commit.basicBlocks.trace::147052            3                       # Basic block distribution
system.cpu0.commit.basicBlocks.trace::147054            3                       # Basic block distribution
system.cpu0.commit.basicBlocks.trace::147066            3                       # Basic block distribution
system.cpu0.commit.basicBlocks.trace::147068            3                       # Basic block distribution
system.cpu0.commit.basicBlocks.trace::147082            3                       # Basic block distribution
system.cpu0.commit.basicBlocks.trace::147086           11                       # Basic block distribution
system.cpu0.commit.basicBlocks.trace::148366            1                       # Basic block distribution
system.cpu0.commit.basicBlocks.trace::149528            4                       # Basic block distribution
system.cpu0.commit.basicBlocks.trace::149560            4                       # Basic block distribution
system.cpu0.commit.basicBlocks.trace::149574            4                       # Basic block distribution
system.cpu0.commit.basicBlocks.trace::149584            4                       # Basic block distribution
system.cpu0.commit.basicBlocks.trace::149608            4                       # Basic block distribution
system.cpu0.commit.basicBlocks.trace::149614            4                       # Basic block distribution
system.cpu0.commit.basicBlocks.trace::150922            1                       # Basic block distribution
system.cpu0.commit.basicBlocks.trace::150950            1                       # Basic block distribution
system.cpu0.commit.basicBlocks.trace::150966            3                       # Basic block distribution
system.cpu0.commit.basicBlocks.trace::150984            2                       # Basic block distribution
system.cpu0.commit.basicBlocks.trace::150990            3                       # Basic block distribution
system.cpu0.commit.basicBlocks.trace::150992            3                       # Basic block distribution
system.cpu0.commit.basicBlocks.trace::150996            3                       # Basic block distribution
system.cpu0.commit.basicBlocks.trace::151028            1                       # Basic block distribution
system.cpu0.commit.basicBlocks.trace::151034            1                       # Basic block distribution
system.cpu0.commit.basicBlocks.trace::151038            1                       # Basic block distribution
system.cpu0.commit.basicBlocks.trace::151054            3                       # Basic block distribution
system.cpu0.commit.basicBlocks.trace::151062            3                       # Basic block distribution
system.cpu0.commit.basicBlocks.trace::151066            3                       # Basic block distribution
system.cpu0.commit.basicBlocks.trace::151080            3                       # Basic block distribution
system.cpu0.commit.basicBlocks.trace::151086            3                       # Basic block distribution
system.cpu0.commit.basicBlocks.trace::151154            3                       # Basic block distribution
system.cpu0.commit.basicBlocks.trace::151162            3                       # Basic block distribution
system.cpu0.commit.basicBlocks.trace::151176            3                       # Basic block distribution
system.cpu0.commit.basicBlocks.trace::151224            3                       # Basic block distribution
[...]
system.mem_ctrl.totMemAccLat                 36660750                       # Total ticks spent from burst creation until serviced by the DRAM
system.mem_ctrl.totQLat                      20273250                       # Total ticks spent queuing
system.mem_ctrl.wrQLenPdf::0                        0                       # What write queue length does an incoming req see
system.mem_ctrl.wrQLenPdf::1                        0                       # What write queue length does an incoming req see
system.mem_ctrl.wrQLenPdf::2                        0                       # What write queue length does an incoming req see
system.mem_ctrl.wrQLenPdf::3                        0                       # What write queue length does an incoming req see
system.mem_ctrl.wrQLenPdf::4                        0                       # What write queue length does an incoming req see
system.mem_ctrl.wrQLenPdf::5                        0                       # What write queue length does an incoming req see
system.mem_ctrl.wrQLenPdf::6                        0                       # What write queue length does an incoming req see
system.mem_ctrl.wrQLenPdf::7                        0                       # What write queue length does an incoming req see
system.mem_ctrl.wrQLenPdf::8                        0                       # What write queue length does an incoming req see
system.mem_ctrl.wrQLenPdf::9                        0                       # What write queue length does an incoming req see
system.mem_ctrl.wrQLenPdf::10                       0                       # What write queue length does an incoming req see
system.mem_ctrl.wrQLenPdf::11                       0                       # What write queue length does an incoming req see
system.mem_ctrl.wrQLenPdf::12                       0                       # What write queue length does an incoming req see
system.mem_ctrl.wrQLenPdf::13                       0                       # What write queue length does an incoming req see
system.mem_ctrl.wrQLenPdf::14                       0                       # What write queue length does an incoming req see
system.mem_ctrl.wrQLenPdf::15                       0                       # What write queue length does an incoming req see
system.mem_ctrl.wrQLenPdf::16                       0                       # What write queue length does an incoming req see
system.mem_ctrl.wrQLenPdf::17                       0                       # What write queue length does an incoming req see
system.mem_ctrl.wrQLenPdf::18                       0                       # What write queue length does an incoming req see
system.mem_ctrl.wrQLenPdf::19                       0                       # What write queue length does an incoming req see
system.mem_ctrl.wrQLenPdf::20                       0                       # What write queue length does an incoming req see
system.mem_ctrl.wrQLenPdf::21                       0                       # What write queue length does an incoming req see
system.mem_ctrl.wrQLenPdf::22                       0                       # What write queue length does an incoming req see
system.mem_ctrl.wrQLenPdf::23                       0                       # What write queue length does an incoming req see
system.mem_ctrl.wrQLenPdf::24                       0                       # What write queue length does an incoming req see
system.mem_ctrl.wrQLenPdf::25                       0                       # What write queue length does an incoming req see
system.mem_ctrl.wrQLenPdf::26                       0                       # What write queue length does an incoming req see
system.mem_ctrl.wrQLenPdf::27                       0                       # What write queue length does an incoming req see
system.mem_ctrl.wrQLenPdf::28                       0                       # What write queue length does an incoming req see
system.mem_ctrl.wrQLenPdf::29                       0                       # What write queue length does an incoming req see
system.mem_ctrl.wrQLenPdf::30                       0                       # What write queue length does an incoming req see
system.mem_ctrl.wrQLenPdf::31                       0                       # What write queue length does an incoming req see
system.mem_ctrl.wrQLenPdf::32                       0                       # What write queue length does an incoming req see
system.mem_ctrl.wrQLenPdf::33                       0                       # What write queue length does an incoming req see
system.mem_ctrl.wrQLenPdf::34                       0                       # What write queue length does an incoming req see
system.mem_ctrl.wrQLenPdf::35                       0                       # What write queue length does an incoming req see
system.mem_ctrl.wrQLenPdf::36                       0                       # What write queue length does an incoming req see
system.mem_ctrl.wrQLenPdf::37                       0                       # What write queue length does an incoming req see
system.mem_ctrl.wrQLenPdf::38                       0                       # What write queue length does an incoming req see
system.mem_ctrl.wrQLenPdf::39                       0                       # What write queue length does an incoming req see
system.mem_ctrl.wrQLenPdf::40                       0                       # What write queue length does an incoming req see
system.mem_ctrl.wrQLenPdf::41                       0                       # What write queue length does an incoming req see
system.mem_ctrl.wrQLenPdf::42                       0                       # What write queue length does an incoming req see
system.mem_ctrl.wrQLenPdf::43                       0                       # What write queue length does an incoming req see
system.mem_ctrl.wrQLenPdf::44                       0                       # What write queue length does an incoming req see
system.mem_ctrl.wrQLenPdf::45                       0                       # What write queue length does an incoming req see
system.mem_ctrl.wrQLenPdf::46                       0                       # What write queue length does an incoming req see
system.mem_ctrl.wrQLenPdf::47                       0                       # What write queue length does an incoming req see
system.mem_ctrl.wrQLenPdf::48                       0                       # What write queue length does an incoming req see
system.mem_ctrl.wrQLenPdf::49                       0                       # What write queue length does an incoming req see
system.mem_ctrl.wrQLenPdf::50                       0                       # What write queue length does an incoming req see
system.mem_ctrl.wrQLenPdf::51                       0                       # What write queue length does an incoming req see
system.mem_ctrl.wrQLenPdf::52                       0                       # What write queue length does an incoming req see
system.mem_ctrl.wrQLenPdf::53                       0                       # What write queue length does an incoming req see
system.mem_ctrl.wrQLenPdf::54                       0                       # What write queue length does an incoming req see
system.mem_ctrl.wrQLenPdf::55                       0                       # What write queue length does an incoming req see
system.mem_ctrl.wrQLenPdf::56                       0                       # What write queue length does an incoming req see
system.mem_ctrl.wrQLenPdf::57                       0                       # What write queue length does an incoming req see
system.mem_ctrl.wrQLenPdf::58                       0                       # What write queue length does an incoming req see
system.mem_ctrl.wrQLenPdf::59                       0                       # What write queue length does an incoming req see
system.mem_ctrl.wrQLenPdf::60                       0                       # What write queue length does an incoming req see
system.mem_ctrl.wrQLenPdf::61                       0                       # What write queue length does an incoming req see
system.mem_ctrl.wrQLenPdf::62                       0                       # What write queue length does an incoming req see
system.mem_ctrl.wrQLenPdf::63                       0                       # What write queue length does an incoming req see
system.mem_ctrl.writeBursts                         0                       # Number of DRAM write bursts, including those merged in the write queue
system.mem_ctrl.writePktSize::0                     0                       # Write request sizes (log2)
system.mem_ctrl.writePktSize::1                     0                       # Write request sizes (log2)
system.mem_ctrl.writePktSize::2                     0                       # Write request sizes (log2)
system.mem_ctrl.writePktSize::3                     0                       # Write request sizes (log2)
system.mem_ctrl.writePktSize::4                     0                       # Write request sizes (log2)
system.mem_ctrl.writePktSize::5                     0                       # Write request sizes (log2)
system.mem_ctrl.writePktSize::6                     0                       # Write request sizes (log2)
system.mem_ctrl.writeReqs                           0                       # Number of write requests accepted
system.mem_ctrl.writeRowHitRate                   nan                       # Row buffer hit rate for writes
system.mem_ctrl.writeRowHits                        0                       # Number of row buffer hits during writes
system.mem_ctrl_0.actBackEnergy               7867140                       # Energy for active background per rank (pJ)
system.mem_ctrl_0.actEnergy                    992460                       # Energy for activate commands per rank (pJ)
system.mem_ctrl_0.actPowerDownEnergy         33348420                       # Energy for active power-down per rank (pJ)
system.mem_ctrl_0.averagePower             254.041329                       # Core power per rank (mW)
system.mem_ctrl_0.memoryStateTime::IDLE        641000                       # Time in different power states
system.mem_ctrl_0.memoryStateTime::REF        3640000                       # Time in different power states
system.mem_ctrl_0.memoryStateTime::SREF    2582572000                       # Time in different power states
system.mem_ctrl_0.memoryStateTime::PRE_PDN     20511500                       # Time in different power states
system.mem_ctrl_0.memoryStateTime::ACT       13994000                       # Time in different power states
system.mem_ctrl_0.memoryStateTime::ACT_PDN     73138500                       # Time in different power states
system.mem_ctrl_0.preBackEnergy                394560                       # Energy for precharge background per rank (pJ)
system.mem_ctrl_0.preEnergy                    516120                       # Energy for precharge commands per rank (pJ)
system.mem_ctrl_0.prePowerDownEnergy          7876800                       # Energy for precharge power-down per rank (pJ)
system.mem_ctrl_0.readEnergy                  3991260                       # Energy for read commands per rank (pJ)
system.mem_ctrl_0.refreshEnergy          8604960.000000                       # Energy for refresh commands per rank (pJ)
system.mem_ctrl_0.selfRefreshEnergy         620921880                       # Energy for self refresh per rank (pJ)
system.mem_ctrl_0.totalEnergy               684513600                       # Total energy per rank (pJ)
system.mem_ctrl_0.totalIdleTime            2676082750                       # Total Idle time Per DRAM Rank
system.mem_ctrl_0.writeEnergy                       0                       # Energy for write commands per rank (pJ)
system.mem_ctrl_1.actBackEnergy               5184150                       # Energy for active background per rank (pJ)
system.mem_ctrl_1.actEnergy                    485520                       # Energy for activate commands per rank (pJ)
system.mem_ctrl_1.actPowerDownEnergy         31145940                       # Energy for active power-down per rank (pJ)
system.mem_ctrl_1.averagePower             252.502799                       # Core power per rank (mW)
system.mem_ctrl_1.memoryStateTime::IDLE       1390000                       # Time in different power states
system.mem_ctrl_1.memoryStateTime::REF        3380000                       # Time in different power states
system.mem_ctrl_1.memoryStateTime::SREF    2588132750                       # Time in different power states
system.mem_ctrl_1.memoryStateTime::PRE_PDN     24984500                       # Time in different power states
system.mem_ctrl_1.memoryStateTime::ACT        8307500                       # Time in different power states
system.mem_ctrl_1.memoryStateTime::ACT_PDN     68302250                       # Time in different power states
system.mem_ctrl_1.preBackEnergy                655680                       # Energy for precharge background per rank (pJ)
system.mem_ctrl_1.preEnergy                    254265                       # Energy for precharge commands per rank (pJ)
system.mem_ctrl_1.prePowerDownEnergy          9594240                       # Energy for precharge power-down per rank (pJ)
system.mem_ctrl_1.readEnergy                  2249100                       # Energy for read commands per rank (pJ)
system.mem_ctrl_1.refreshEnergy          7990320.000000                       # Energy for refresh commands per rank (pJ)
system.mem_ctrl_1.selfRefreshEnergy         622808820                       # Energy for self refresh per rank (pJ)
system.mem_ctrl_1.totalEnergy               680368035                       # Total energy per rank (pJ)
system.mem_ctrl_1.totalIdleTime            2677519250                       # Total Idle time Per DRAM Rank
system.mem_ctrl_1.writeEnergy                       0                       # Energy for write commands per rank (pJ)
system.membus.pkt_count_system.l2cache.mem_side::system.mem_ctrl.port         5130                       # Packet count per connected master and slave (bytes)
system.membus.pkt_count::total                   5130                       # Packet count per connected master and slave (bytes)
system.membus.pkt_size_system.l2cache.mem_side::system.mem_ctrl.port        55936                       # Cumulative packet size per connected master and slave (bytes)
system.membus.pkt_size::total                   55936                       # Cumulative packet size per connected master and slave (bytes)
system.membus.pwrStateResidencyTicks::UNDEFINED   2694497000                       # Cumulative time (in ticks) in various power states
system.membus.reqLayer0.occupancy              874000                       # Layer occupancy (ticks)
system.membus.reqLayer0.utilization               0.0                       # Layer utilization (%)
system.membus.respLayer0.occupancy            4617750                       # Layer occupancy (ticks)
system.membus.respLayer0.utilization              0.2                       # Layer utilization (%)
system.membus.snoopTraffic                          0                       # Total snoop traffic (bytes)
system.membus.snoop_fanout::samples              4256                       # Request fanout histogram
system.membus.snoop_fanout::mean                    0                       # Request fanout histogram
system.membus.snoop_fanout::stdev                   0                       # Request fanout histogram
system.membus.snoop_fanout::underflows              0      0.00%      0.00% # Request fanout histogram
system.membus.snoop_fanout::0                    4256    100.00%    100.00% # Request fanout histogram
system.membus.snoop_fanout::1                       0      0.00%    100.00% # Request fanout histogram
system.membus.snoop_fanout::overflows               0      0.00%    100.00% # Request fanout histogram
system.membus.snoop_fanout::min_value               0                       # Request fanout histogram
system.membus.snoop_fanout::max_value               0                       # Request fanout histogram
system.membus.snoop_fanout::total                4256                       # Request fanout histogram
system.membus.snoop_filter.hit_multi_requests            0                       # Number of requests hitting in the snoop filter with multiple (>1) holders of the requested data.
system.membus.snoop_filter.hit_multi_snoops            0                       # Number of snoops hitting in the snoop filter with multiple (>1) holders of the requested data.
system.membus.snoop_filter.hit_single_requests         3382                       # Number of requests hitting in the snoop filter with a single holder of the requested data.
system.membus.snoop_filter.hit_single_snoops            0                       # Number of snoops hitting in the snoop filter with a single holder of the requested data.
system.membus.snoop_filter.tot_requests          4256                       # Total number of requests made to the snoop filter.
system.membus.snoop_filter.tot_snoops               0                       # Total number of snoops made to the snoop filter.
system.membus.snoops                             3382                       # Total snoops (count)
system.membus.trans_dist::ReadResp                610                       # Transaction distribution
system.membus.trans_dist::UpgradeReq             3375                       # Transaction distribution
system.membus.trans_dist::SCUpgradeReq              6                       # Transaction distribution
system.membus.trans_dist::ReadExReq               265                       # Transaction distribution
system.membus.trans_dist::ReadExResp              264                       # Transaction distribution
system.membus.trans_dist::ReadSharedReq           610                       # Transaction distribution
system.pwrStateResidencyTicks::UNDEFINED   2694497000                       # Cumulative time (in ticks) in various power states
system.scheduler.requestFail::0                     0                       # Number of times which a column request a pe and there is no enough idle resource in other columns
system.scheduler.requestFail::1                     0                       # Number of times which a column request a pe and there is no enough idle resource in other columns
system.scheduler.requestFail::2                     0                       # Number of times which a column request a pe and there is no enough idle resource in other columns
system.scheduler.requestFail::3                     0                       # Number of times which a column request a pe and there is no enough idle resource in other columns
system.scheduler.requestSuccess::0                  0                       # Number of times which a column request a pe and other columns had idle pe
system.scheduler.requestSuccess::1                  0                       # Number of times which a column request a pe and other columns had idle pe
system.scheduler.requestSuccess::2                  0                       # Number of times which a column request a pe and other columns had idle pe
system.scheduler.requestSuccess::3                  0                       # Number of times which a column request a pe and other columns had idle pe
system.scheduler.totalRequest                       0                       # Number total of request for PE
system.scheduler.totalRequestInCore::0              0                       # Number total of request for PE
system.scheduler.totalRequestInCore::1              0                       # Number total of request for PE
system.scheduler.totalRequestInCore::2              0                       # Number total of request for PE
system.scheduler.totalRequestInCore::3              0                       # Number total of request for PE

---------- End Simulation Statistics   ----------
